
This summary information was generated by AeroDyn (v15.00.00b-bjj, 6-Oct-2015) on 02-Jan-2017 at 22:23:39.

======  General Options  ============================================================================
            1  WakeMod        - Type of wake/induction model: Blade-Element/Momentum Theory
            1  AFAeroMod      - Type of blade airfoil aerodynamics model: steady
            1  TwrPotent      - Type tower influence on wind based on potential flow around the tower: baseline potential flow
            F  TwrShadow      - Calculate tower influence on wind based on downstream tower shadow? No
            T  TwrAero        - Calculate tower aerodynamic loads? Yes
======  Blade-Element/Momentum Theory Options  ======================================================
            2  SkewMod        - Type of skewed-wake correction model: Pitt/Peters
            T  TipLoss        - Use the Prandtl tip-loss model? Yes
            T  HubLoss        - Use the Prandtl hub-loss model? Yes
            T  TanInd         - Include tangential induction in BEMT calculations? Yes
            F  AIDrag         - Include the drag term in the axial-induction calculation? No
            F  AIDrag         - Include the drag term in the tangential-induction calculation? No
======  Outputs  ====================================================================================
            3  NBlOuts        - Number of blade nodes selected for output
           19  NumBlNds       - Number of blade nodes in the analysis
               Blade nodes selected for output:  Output node  Analysis node
                                                 -----------  -------------
                                                           1              1
                                                           2              9
                                                           3             19
            0  NTwOuts        - Number of tower nodes selected for output
               Requested Output Channels:
               Col   Parameter  Units
               ----  ---------  -----
                  0  Time       (s)       
                  1  RtSpeed    (rpm)     
                  2  RtSkew     (deg)     
                  3  B1Azimuth  (deg)     
                  4  B1N1Theta  (deg)     
                  5  B1N2Theta  (deg)     
                  6  B1N3Theta  (deg)     
                  7  B1N1VDisx  (m/s)     
                  8  B1N1VDisy  (m/s)     
                  9  B1N1VDisz  (m/s)     
                 10  B1N2VDisx  (m/s)     
                 11  B1N2VDisy  (m/s)     
                 12  B1N2VDisz  (m/s)     
                 13  B1N3VDisx  (m/s)     
                 14  B1N3VDisy  (m/s)     
                 15  B1N3VDisz  (m/s)     
                 16  B1N1STVx   (m/s)     
                 17  B1N1STVy   (m/s)     
                 18  B1N1STVz   (m/s)     
                 19  B1N2STVx   (m/s)     
                 20  B1N2STVy   (m/s)     
                 21  B1N2STVz   (m/s)     
                 22  B1N3STVx   (m/s)     
                 23  B1N3STVy   (m/s)     
                 24  B1N3STVz   (m/s)     
                 25  B1N1AxInd  (-)       
                 26  B1N2AxInd  (-)       
                 27  B1N3AxInd  (-)       
                 28  B1N1Alpha  (deg)     
                 29  B1N2Alpha  (deg)     
                 30  B1N3Alpha  (deg)     
